11
0 1 
C -0.9421291738295581 0.28093481006070975 -0.6755193447276566 
O -1.295050905739998 -0.5382131218460808 0.17059946342064045 
H -0.5497857403356748 -0.06457265630924922 -1.64868214345269 
H -1.3723389159702621 1.2910301875426837 -0.7217060411807912 
C 1.455883496090869 -0.03467371908263513 -0.07046158794235412 
C 0.7636356431608193 1.1103166146989265 0.16172579115532718 
O 1.1970108674903037 -1.1906386825137143 0.503380928265377 
H 2.208710029630463 -0.0959324202768325 -0.8505302648580169 
H 0.21344450379578572 1.2405666646947795 1.078527282953885 
H 1.0691331803872488 2.0140650004627823 -0.3376730362815855 
H 0.2551283209833743 -1.20158404402889 0.8106013374544789 
